RADICS-Ex2 Yes Even More GLD Models/RADICS_Sub5.glm
//Input feeder information for Taxonomy Feeders with different cases.
//Started on 10/21/09. This version created 29-Sep-2017 11:15:46.
// This version was created to perform FY11 Department of Energy
// analysis on the benefits of the SGIG grant projects.

clock {
	timezone CST+6CDT;
	starttime '2009-01-01 00:00:00';
	stoptime '2010-01-02 00:00:00';
}

#include "appliance_schedules.glm";
#include "water_and_setpoint_schedule_v5.glm";
#include "commercial_schedules.glm";
#set minimum_timestep=4;
#set profiler=1;
#set relax_naming_rules=1;

module tape;

module climate;

module residential {
	implicit_enduses NONE;
};

module powerflow {
	solver_method NR;
	NR_iteration_limit 50;
	lu_solver "KLU_x64";
};

class player {
	double value;
};

object climate {
	name "IL-Chicago";
	tmyfile "IL-Chicago.tmy2";
	interpolate QUADRATIC;
}

object regulator_configuration {
	name feeder_reg_cfg;
	Control MANUAL;
	band_center 7500.0;
	band_width 120;
	connect_type WYE_WYE;
	time_delay 30;
	raise_taps 16;
	lower_taps 16;
	regulation 0.10;
	tap_pos_A 0;
	tap_pos_B 0;
	tap_pos_C 0;
}

object line_configuration {
	name line_configuration_30;
	conductor_A underground_line_conductor_2;
	conductor_B underground_line_conductor_2;
	conductor_C underground_line_conductor_2;
	conductor_N underground_line_conductor_2;
	spacing line_spacing_15;
}

object line_configuration {
	name line_configuration_31;
	conductor_B underground_line_conductor_2;
	conductor_N underground_line_conductor_2;
	spacing line_spacing_16;
}

object line_configuration {
	name line_configuration_32;
	conductor_A underground_line_conductor_2;
	conductor_N underground_line_conductor_2;
	spacing line_spacing_17;
}

object line_configuration {
	name line_configuration_33;
	conductor_C underground_line_conductor_2;
	conductor_N underground_line_conductor_2;
	spacing line_spacing_18;
}

object line_configuration {
	name line_configuration_34;
	conductor_C underground_line_conductor_2;
	conductor_N underground_line_conductor_2;
	spacing line_spacing_19;
}

object line_configuration {
	name line_configuration_35;
	conductor_C underground_line_conductor_3;
	conductor_N underground_line_conductor_3;
	spacing line_spacing_18;
}

object line_configuration {
	name line_configuration_36;
	conductor_A overhead_line_conductor_4;
	conductor_B overhead_line_conductor_4;
	conductor_C overhead_line_conductor_4;
	conductor_N overhead_line_conductor_4;
	spacing line_spacing_20;
}

object line_configuration {
	name line_configuration_37;
	conductor_A overhead_line_conductor_4;
	conductor_C overhead_line_conductor_4;
	conductor_N overhead_line_conductor_4;
	spacing line_spacing_21;
}

object line_configuration {
	name line_configuration_38;
	conductor_A overhead_line_conductor_5;
	conductor_C overhead_line_conductor_5;
	conductor_N overhead_line_conductor_5;
	spacing line_spacing_21;
}

object line_configuration {
	name line_configuration_39;
	conductor_C underground_line_conductor_6;
	conductor_N underground_line_conductor_6;
	spacing line_spacing_18;
}

object line_configuration {
	name line_configuration_40;
	conductor_A overhead_line_conductor_5;
	conductor_B overhead_line_conductor_5;
	conductor_C overhead_line_conductor_5;
	conductor_N overhead_line_conductor_5;
	spacing line_spacing_20;
}

object line_configuration {
	name line_configuration_41;
	conductor_A overhead_line_conductor_7;
	conductor_B overhead_line_conductor_7;
	conductor_C overhead_line_conductor_7;
	conductor_N overhead_line_conductor_7;
	spacing line_spacing_20;
}

object line_configuration {
	name line_configuration_42;
	conductor_C overhead_line_conductor_4;
	conductor_N overhead_line_conductor_4;
	spacing line_spacing_22;
}

object line_configuration {
	name line_configuration_43;
	conductor_A underground_line_conductor_8;
	conductor_B underground_line_conductor_8;
	conductor_C underground_line_conductor_8;
	conductor_N underground_line_conductor_8;
	spacing line_spacing_15;
}

object line_configuration {
	name line_configuration_44;
	conductor_C underground_line_conductor_8;
	conductor_N underground_line_conductor_8;
	spacing line_spacing_18;
}

object line_configuration {
	name line_configuration_45;
	conductor_A underground_line_conductor_6;
	conductor_C underground_line_conductor_6;
	conductor_N underground_line_conductor_6;
	spacing line_spacing_23;
}

object line_configuration {
	name line_configuration_46;
	conductor_A overhead_line_conductor_9;
	conductor_C overhead_line_conductor_9;
	conductor_N overhead_line_conductor_9;
	spacing line_spacing_21;
}

object line_configuration {
	name line_configuration_47;
	conductor_A underground_line_conductor_6;
	conductor_N underground_line_conductor_6;
	spacing line_spacing_17;
}

object line_configuration {
	name line_configuration_48;
	conductor_A underground_line_conductor_10;
	conductor_B underground_line_conductor_10;
	conductor_C underground_line_conductor_10;
	conductor_N underground_line_conductor_10;
	spacing line_spacing_15;
}

object line_configuration {
	name line_configuration_49;
	conductor_A underground_line_conductor_3;
	conductor_B underground_line_conductor_3;
	conductor_C underground_line_conductor_3;
	conductor_N underground_line_conductor_3;
	spacing line_spacing_20;
}

object line_configuration {
	name line_configuration_50;
	conductor_A overhead_line_conductor_9;
	conductor_B overhead_line_conductor_9;
	conductor_C overhead_line_conductor_9;
	conductor_N overhead_line_conductor_9;
	spacing line_spacing_20;
}

object line_configuration {
	name line_configuration_51;
	conductor_A overhead_line_conductor_5;
	conductor_B overhead_line_conductor_5;
	conductor_C overhead_line_conductor_5;
	conductor_N overhead_line_conductor_5;
	spacing line_spacing_20;
}

object line_configuration {
	name line_configuration_52;
	conductor_B overhead_line_conductor_9;
	conductor_C overhead_line_conductor_9;
	conductor_N overhead_line_conductor_9;
	spacing line_spacing_24;
}

object line_configuration {
	name line_configuration_53;
	conductor_A overhead_line_conductor_5;
	conductor_N overhead_line_conductor_5;
	spacing line_spacing_25;
}

object line_configuration {
	name line_configuration_54;
	conductor_A overhead_line_conductor_4;
	conductor_N overhead_line_conductor_4;
	spacing line_spacing_25;
}

object line_configuration {
	name line_configuration_55;
	conductor_A underground_line_conductor_3;
	conductor_B underground_line_conductor_3;
	conductor_C underground_line_conductor_3;
	conductor_N underground_line_conductor_3;
	spacing line_spacing_15;
}

object line_configuration {
	name line_configuration_56;
	conductor_A underground_line_conductor_3;
	conductor_N underground_line_conductor_3;
	spacing line_spacing_17;
}

object line_configuration {
	name line_configuration_57;
	conductor_B overhead_line_conductor_5;
	conductor_N overhead_line_conductor_5;
	spacing line_spacing_26;
}

object line_configuration {
	name line_configuration_58;
	conductor_A overhead_line_conductor_11;
	conductor_B overhead_line_conductor_11;
	conductor_C overhead_line_conductor_11;
	conductor_N overhead_line_conductor_11;
	spacing line_spacing_20;
}

object line_configuration {
	name line_configuration_59;
	conductor_A overhead_line_conductor_12;
	conductor_B overhead_line_conductor_12;
	conductor_C overhead_line_conductor_12;
	conductor_N overhead_line_conductor_12;
	spacing line_spacing_20;
}

object line_configuration {
	name line_configuration_60;
	conductor_A overhead_line_conductor_13;
	conductor_B overhead_line_conductor_13;
	conductor_C overhead_line_conductor_13;
	conductor_N overhead_line_conductor_13;
	spacing line_spacing_20;
}

object line_configuration {
	name line_configuration_61;
	conductor_A underground_line_conductor_2;
	conductor_C underground_line_conductor_2;
	conductor_N underground_line_conductor_2;
	spacing line_spacing_23;
}

object line_configuration {
	name line_configuration_62;
	conductor_C overhead_line_conductor_11;
	conductor_N overhead_line_conductor_11;
	spacing line_spacing_22;
}

object line_configuration {
	name line_configuration_63;
	conductor_B underground_line_conductor_2;
	conductor_C underground_line_conductor_2;
	conductor_N underground_line_conductor_2;
	spacing line_spacing_27;
}

object line_configuration {
	name line_configuration_64;
	conductor_A underground_line_conductor_2;
	conductor_B underground_line_conductor_2;
	conductor_N underground_line_conductor_2;
	spacing line_spacing_28;
}

object line_configuration {
	name line_configuration_65;
	conductor_A overhead_line_conductor_4;
	conductor_N overhead_line_conductor_4;
	spacing line_spacing_29;
}

object line_configuration {
	name line_configuration_66;
	conductor_C underground_line_conductor_10;
	conductor_N underground_line_conductor_10;
	spacing line_spacing_18;
}

object line_spacing {
	name line_spacing_15;
	distance_AB 3.0 in;
	distance_BC 3.0 in;
	distance_AC 3.0 in;
	distance_AN 2.0 in;
	distance_BN 2.0 in;
	distance_CN 2.0 in;
}

object line_spacing {
	name line_spacing_16;
	distance_BN 2.0 in;
}

object line_spacing {
	name line_spacing_17;
	distance_AN 2.0 in;
}

object line_spacing {
	name line_spacing_18;
	distance_CN 2.0 in;
}

object line_spacing {
	name line_spacing_19;
	distance_CN 2.0 in;
}

object line_spacing {
	name line_spacing_20;
	distance_AB 48.0 in;
	distance_BC 48.0 in;
	distance_AC 48.0 in;
	distance_AN 36.0 in;
	distance_BN 36.0 in;
	distance_CN 36.0 in;
}

object line_spacing {
	name line_spacing_21;
	distance_AC 48.0 in;
	distance_AN 36.0 in;
	distance_CN 36.0 in;
}

object line_spacing {
	name line_spacing_22;
	distance_CN 36.0 in;
}

object line_spacing {
	name line_spacing_23;
	distance_AC 3.0 in;
	distance_AN 2.0 in;
	distance_CN 2.0 in;
}

object line_spacing {
	name line_spacing_24;
	distance_BC 48.0 in;
	distance_BN 36.0 in;
	distance_CN 36.0 in;
}

object line_spacing {
	name line_spacing_25;
	distance_AN 36.0 in;
}

object line_spacing {
	name line_spacing_26;
	distance_BN 36.0 in;
}

object line_spacing {
	name line_spacing_27;
	distance_BC 3.0 in;
	distance_BN 2.0 in;
	distance_CN 2.0 in;
}

object line_spacing {
	name line_spacing_28;
	distance_AB 3.0 in;
	distance_AN 2.0 in;
	distance_BN 2.0 in;
}

object line_spacing {
	name line_spacing_29;
	distance_AN 48.0 in;
}

object overhead_line_conductor {
	name overhead_line_conductor_4;
	rating.summer.continuous 149.0;
	geometric_mean_radius 0.00663 ft;
	resistance 1.50000;
}

object overhead_line_conductor {
	name overhead_line_conductor_5;
	rating.summer.continuous 120.0;
	geometric_mean_radius 0.00700 ft;
	resistance 2.40970;
}

object overhead_line_conductor {
	name overhead_line_conductor_7;
	rating.summer.continuous 533.0;
	geometric_mean_radius 0.02280 ft;
	resistance 0.25800;
}

object overhead_line_conductor {
	name overhead_line_conductor_9;
	rating.summer.continuous 112.0;
	geometric_mean_radius 0.00526 ft;
	resistance 2.39000;
}

object overhead_line_conductor {
	name overhead_line_conductor_11;
	rating.summer.continuous 443.0;
	geometric_mean_radius 0.02270 ft;
	resistance 0.05230;
}

object overhead_line_conductor {
	name overhead_line_conductor_12;
	rating.summer.continuous 605.0;
	geometric_mean_radius 0.02920 ft;
	resistance 0.03180;
}

object overhead_line_conductor {
	name overhead_line_conductor_13;
	rating.summer.continuous 256.0;
	geometric_mean_radius 0.01200 ft;
	resistance 0.16600;
}

object overhead_line_conductor {
	name overhead_line_conductor_14;
	rating.summer.continuous 334.0;
	geometric_mean_radius 0.00814 ft;
	resistance 0.56300;
}

object transformer_configuration {
	name transformer_configuration_2860;
	connect_type SINGLE_PHASE_CENTER_TAPPED;
	install_type PADMOUNT;
	primary_voltage 7200 V;
	secondary_voltage 120 V;
	power_rating 5;
	powerA_rating 5;
	resistance 0.015;
	reactance 0.01;
	shunt_impedance 297.890+330.556j;
}

object transformer_configuration {
	name transformer_configuration_2861;
	connect_type SINGLE_PHASE_CENTER_TAPPED;
	install_type PADMOUNT;
	primary_voltage 7200 V;
	secondary_voltage 120 V;
	power_rating 50.0;
	powerA_rating 50.0;
	resistance 0.00300;
	reactance 0.00200;
	shunt_impedance 391.760+376.162j;
}

object transformer_configuration {
	name transformer_configuration_2862;
	connect_type SINGLE_PHASE_CENTER_TAPPED;
	install_type PADMOUNT;
	primary_voltage 7200 V;
	secondary_voltage 120 V;
	power_rating 100.0;
	powerA_rating 100.0;
	resistance 0.00150;
	reactance 0.00100;
	shunt_impedance 496.060+491.821j;
}

object transformer_configuration {
	name transformer_configuration_2863;
	connect_type SINGLE_PHASE_CENTER_TAPPED;
	install_type PADMOUNT;
	primary_voltage 7200 V;
	secondary_voltage 120 V;
	power_rating 25.0;
	powerA_rating 25.0;
	resistance 0.00600;
	reactance 0.00400;
	shunt_impedance 339.610+420.209j;
}

object transformer_configuration {
	name transformer_configuration_2864;
	connect_type SINGLE_PHASE_CENTER_TAPPED;
	install_type POLETOP;
	primary_voltage 7200 V;
	secondary_voltage 120 V;
	power_rating 5;
	powerA_rating 5;
	resistance 0.015;
	reactance 0.01;
	shunt_impedance 297.890+283.772j;
}

object transformer_configuration {
	name transformer_configuration_2865;
	connect_type SINGLE_PHASE_CENTER_TAPPED;
	install_type PADMOUNT;
	primary_voltage 7200 V;
	secondary_voltage 120 V;
	power_rating 10.0;
	powerA_rating 10.0;
	resistance 0.015;
	reactance 0.01;
	shunt_impedance 308.320+337.498j;
}

object transformer_configuration {
	name transformer_configuration_2866;
	connect_type SINGLE_PHASE_CENTER_TAPPED;
	install_type POLETOP;
	primary_voltage 7200 V;
	secondary_voltage 120 V;
	power_rating 25.0;
	powerA_rating 25.0;
	resistance 0.00600;
	reactance 0.00400;
	shunt_impedance 339.610+367.396j;
}

object transformer_configuration {
	name transformer_configuration_2867;
	connect_type SINGLE_PHASE_CENTER_TAPPED;
	install_type POLETOP;
	primary_voltage 7200 V;
	secondary_voltage 120 V;
	power_rating 37.5;
	powerA_rating 37.5;
	resistance 0.00400;
	reactance 0.00267;
	shunt_impedance 365.685+423.791j;
}

object transformer_configuration {
	name transformer_configuration_2868;
	connect_type SINGLE_PHASE_CENTER_TAPPED;
	install_type POLETOP;
	primary_voltage 7200 V;
	secondary_voltage 120 V;
	power_rating 50.0;
	powerA_rating 50.0;
	resistance 0.00300;
	reactance 0.00200;
	shunt_impedance 391.760+412.367j;
}

object transformer_configuration {
	name transformer_configuration_2869;
	connect_type SINGLE_PHASE_CENTER_TAPPED;
	install_type POLETOP;
	primary_voltage 7200 V;
	secondary_voltage 120 V;
	power_rating 10.0;
	powerA_rating 10.0;
	resistance 0.015;
	reactance 0.01;
	shunt_impedance 308.320+232.313j;
}

object transformer_configuration {
	name transformer_configuration_2870;
	connect_type SINGLE_PHASE_CENTER_TAPPED;
	install_type POLETOP;
	primary_voltage 7200 V;
	secondary_voltage 120 V;
	power_rating 75.0;
	powerA_rating 75.0;
	resistance 0.00200;
	reactance 0.00133;
	shunt_impedance 443.910+406.065j;
}

object transformer_configuration {
	name transformer_configuration_2871;
	connect_type SINGLE_PHASE_CENTER_TAPPED;
	install_type PADMOUNT;
	primary_voltage 7200 V;
	secondary_voltage 120 V;
	power_rating 175.0;
	powerA_rating 175.0;
	resistance 0.00086;
	reactance 0.00057;
	shunt_impedance 652.510+685.901j;
}

object transformer_configuration {
	name transformer_configuration_2872;
	connect_type SINGLE_PHASE_CENTER_TAPPED;
	install_type PADMOUNT;
	primary_voltage 7200 V;
	secondary_voltage 120 V;
	power_rating 37.5;
	powerA_rating 37.5;
	resistance 0.00400;
	reactance 0.00267;
	shunt_impedance 365.685+375.111j;
}

object transformer_configuration {
	name transformer_configuration_2873;
	connect_type SINGLE_PHASE_CENTER_TAPPED;
	install_type PADMOUNT;
	primary_voltage 7200 V;
	secondary_voltage 120 V;
	power_rating 25.0;
	powerB_rating 25.0;
	resistance 0.00600;
	reactance 0.00400;
	shunt_impedance 339.610+406.257j;
}

object transformer_configuration {
	name transformer_configuration_2874;
	connect_type SINGLE_PHASE_CENTER_TAPPED;
	install_type PADMOUNT;
	primary_voltage 7200 V;
	secondary_voltage 120 V;
	power_rating 37.5;
	powerB_rating 37.5;
	resistance 0.00400;
	reactance 0.00267;
	shunt_impedance 365.685+417.112j;
}

object transformer_configuration {
	name transformer_configuration_2875;
	connect_type SINGLE_PHASE_CENTER_TAPPED;
	install_type PADMOUNT;
	primary_voltage 7200 V;
	secondary_voltage 120 V;
	power_rating 50.0;
	powerB_rating 50.0;
	resistance 0.00300;
	reactance 0.00200;
	shunt_impedance 391.760+411.224j;
}

object transformer_configuration {
	name transformer_configuration_2876;
	connect_type SINGLE_PHASE_CENTER_TAPPED;
	install_type PADMOUNT;
	primary_voltage 7200 V;
	secondary_voltage 120 V;
	power_rating 100.0;
	powerB_rating 100.0;
	resistance 0.00150;
	reactance 0.00100;
	shunt_impedance 496.060+500.169j;
}

object transformer_configuration {
	name transformer_configuration_2877;
	connect_type SINGLE_PHASE_CENTER_TAPPED;
	install_type PADMOUNT;
	primary_voltage 7200 V;
	secondary_voltage 120 V;
	power_rating 5;
	powerB_rating 5;
	resistance 0.015;
	reactance 0.01;
	shunt_impedance 297.890+251.762j;
}

object transformer_configuration {
	name transformer_configuration_2878;
	connect_type SINGLE_PHASE_CENTER_TAPPED;
	install_type POLETOP;
	primary_voltage 7200 V;
	secondary_voltage 120 V;
	power_rating 5;
	powerB_rating 5;
	resistance 0.015;
	reactance 0.01;
	shunt_impedance 297.890+353.392j;
}

object transformer_configuration {
	name transformer_configuration_2879;
	connect_type SINGLE_PHASE_CENTER_TAPPED;
	install_type PADMOUNT;
	primary_voltage 7200 V;
	secondary_voltage 120 V;
	power_rating 15.0;
	powerB_rating 15.0;
	resistance 0.01000;
	reactance 0.00667;
	shunt_impedance 318.750+323.022j;
}

object transformer_configuration {
	name transformer_configuration_2880;
	connect_type SINGLE_PHASE_CENTER_TAPPED;
	install_type POLETOP;
	primary_voltage 7200 V;
	secondary_voltage 120 V;
	power_rating 75.0;
	powerB_rating 75.0;
	resistance 0.00200;
	reactance 0.00133;
	shunt_impedance 443.910+375.281j;
}

object transformer_configuration {
	name transformer_configuration_2881;
	connect_type SINGLE_PHASE_CENTER_TAPPED;
	install_type POLETOP;
	primary_voltage 7200 V;
	secondary_voltage 120 V;
	power_rating 37.5;
	powerB_rating 37.5;
	resistance 0.00400;
	reactance 0.00267;
	shunt_impedance 365.685+381.529j;
}

object transformer_configuration {
	name transformer_configuration_2882;
	connect_type SINGLE_PHASE_CENTER_TAPPED;
	install_type POLETOP;
	primary_voltage 7200 V;
	secondary_voltage 120 V;
	power_rating 50.0;
	powerB_rating 50.0;
	resistance 0.00300;
	reactance 0.00200;
	shunt_impedance 391.760+395.793j;
}

object transformer_configuration {
	name transformer_configuration_2883;
	connect_type SINGLE_PHASE_CENTER_TAPPED;
	install_type POLETOP;
	primary_voltage 7200 V;
	secondary_voltage 120 V;
	power_rating 25.0;
	powerB_rating 25.0;
	resistance 0.00600;
	reactance 0.00400;
	shunt_impedance 339.610+320.240j;
}

object transformer_configuration {
	name transformer_configuration_2884;
	connect_type SINGLE_PHASE_CENTER_TAPPED;
	install_type PADMOUNT;
	primary_voltage 7200 V;
	secondary_voltage 120 V;
	power_rating 10.0;
	powerB_rating 10.0;
	resistance 0.015;
	reactance 0.01;
	shunt_impedance 308.320+323.522j;
}

object transformer_configuration {
	name transformer_configuration_2885;
	connect_type SINGLE_PHASE_CENTER_TAPPED;
	install_type PADMOUNT;
	primary_voltage 7200 V;
	secondary_voltage 120 V;
	power_rating 75.0;
	powerB_rating 75.0;
	resistance 0.00200;
	reactance 0.00133;
	shunt_impedance 443.910+412.503j;
}

object transformer_configuration {
	name transformer_configuration_2886;
	connect_type SINGLE_PHASE_CENTER_TAPPED;
	install_type PADMOUNT;
	primary_voltage 7200 V;
	secondary_voltage 120 V;
	power_rating 175.0;
	powerB_rating 175.0;
	resistance 0.00086;
	reactance 0.00057;
	shunt_impedance 652.510+564.550j;
}

object transformer_configuration {
	name transformer_configuration_2887;
	connect_type SINGLE_PHASE_CENTER_TAPPED;
	install_type PADMOUNT;
	primary_voltage 7200 V;
	secondary_voltage 120 V;
	power_rating 5;
	powerC_rating 5;
	resistance 0.015;
	reactance 0.01;
	shunt_impedance 297.890+245.631j;
}

object transformer_configuration {
	name transformer_configuration_2888;
	connect_type SINGLE_PHASE_CENTER_TAPPED;
	install_type PADMOUNT;
	primary_voltage 7200 V;
	secondary_voltage 120 V;
	power_rating 25.0;
	powerC_rating 25.0;
	resistance 0.00600;
	reactance 0.00400;
	shunt_impedance 339.610+327.255j;
}

object transformer_configuration {
	name transformer_configuration_2889;
	connect_type SINGLE_PHASE_CENTER_TAPPED;
	install_type PADMOUNT;
	primary_voltage 7200 V;
	secondary_voltage 120 V;
	power_rating 50.0;
	powerC_rating 50.0;
	resistance 0.00300;
	reactance 0.00200;
	shunt_impedance 391.760+367.193j;
}

object transformer_configuration {
	name transformer_configuration_2890;
	connect_type SINGLE_PHASE_CENTER_TAPPED;
	install_type PADMOUNT;
	primary_voltage 7200 V;
	secondary_voltage 120 V;
	power_rating 100.0;
	powerC_rating 100.0;
	resistance 0.00150;
	reactance 0.00100;
	shunt_impedance 496.060+517.894j;
}

object transformer_configuration {
	name transformer_configuration_2891;
	connect_type SINGLE_PHASE_CENTER_TAPPED;
	install_type PADMOUNT;
	primary_voltage 7200 V;
	secondary_voltage 120 V;
	power_rating 75.0;
	powerC_rating 75.0;
	resistance 0.00200;
	reactance 0.00133;
	shunt_impedance 443.910+377.206j;
}

object transformer_configuration {
	name transformer_configuration_2892;
	connect_type SINGLE_PHASE_CENTER_TAPPED;
	install_type PADMOUNT;
	primary_voltage 7200 V;
	secondary_voltage 120 V;
	power_rating 175.0;
	powerC_rating 175.0;
	resistance 0.00086;
	reactance 0.00057;
	shunt_impedance 652.510+638.922j;
}

object transformer_configuration {
	name transformer_configuration_2893;
	connect_type SINGLE_PHASE_CENTER_TAPPED;
	install_type PADMOUNT;
	primary_voltage 7200 V;
	secondary_voltage 120 V;
	power_rating 37.5;
	powerC_rating 37.5;
	resistance 0.00400;
	reactance 0.00267;
	shunt_impedance 365.685+310.645j;
}

object transformer_configuration {
	name transformer_configuration_2894;
	connect_type SINGLE_PHASE_CENTER_TAPPED;
	install_type PADMOUNT;
	primary_voltage 7200 V;
	secondary_voltage 120 V;
	power_rating 5.0;
	powerC_rating 5.0;
	resistance 0.015;
	reactance 0.01;
	shunt_impedance 297.890+351.800j;
}

object transformer_configuration {
	name transformer_configuration_2895;
	connect_type SINGLE_PHASE_CENTER_TAPPED;
	install_type POLETOP;
	primary_voltage 7200 V;
	secondary_voltage 120 V;
	power_rating 25.0;
	powerC_rating 25.0;
	resistance 0.00600;
	reactance 0.00400;
	shunt_impedance 339.610+335.637j;
}

object transformer_configuration {
	name transformer_configuration_2896;
	connect_type SINGLE_PHASE_CENTER_TAPPED;
	install_type PADMOUNT;
	primary_voltage 7200 V;
	secondary_voltage 120 V;
	power_rating 15.0;
	powerC_rating 15.0;
	resistance 0.01000;
	reactance 0.00667;
	shunt_impedance 318.750+357.835j;
}

object transformer_configuration {
	name transformer_configuration_2897;
	connect_type SINGLE_PHASE_CENTER_TAPPED;
	install_type PADMOUNT;
	primary_voltage 7200 V;
	secondary_voltage 120 V;
	power_rating 10.0;
	powerC_rating 10.0;
	resistance 0.015;
	reactance 0.01;
	shunt_impedance 308.320+323.580j;
}

object transformer_configuration {
	name transformer_configuration_2898;
	connect_type SINGLE_PHASE_CENTER_TAPPED;
	install_type POLETOP;
	primary_voltage 7200 V;
	secondary_voltage 120 V;
	power_rating 5;
	powerC_rating 5;
	resistance 0.015;
	reactance 0.01;
	shunt_impedance 297.890+324.956j;
}

object transformer_configuration {
	name transformer_configuration_2899;
	connect_type SINGLE_PHASE_CENTER_TAPPED;
	install_type POLETOP;
	primary_voltage 7200 V;
	secondary_voltage 120 V;
	power_rating 50.0;
	powerC_rating 50.0;
	resistance 0.00300;
	reactance 0.00200;
	shunt_impedance 391.760+346.542j;
}

object transformer_configuration {
	name transformer_configuration_2900;
	connect_type SINGLE_PHASE_CENTER_TAPPED;
	install_type POLETOP;
	primary_voltage 7200 V;
	secondary_voltage 120 V;
	power_rating 10.0;
	powerC_rating 10.0;
	resistance 0.015;
	reactance 0.01;
	shunt_impedance 308.320+347.093j;
}

object transformer_configuration {
	name transformer_configuration_2901;
	connect_type SINGLE_PHASE_CENTER_TAPPED;
	install_type POLETOP;
	primary_voltage 7200 V;
	secondary_voltage 120 V;
	power_rating 75.0;
	powerC_rating 75.0;
	resistance 0.00200;
	reactance 0.00133;
	shunt_impedance 443.910+508.389j;
}

object transformer_configuration {
	name transformer_configuration_2902;
	connect_type SINGLE_PHASE_CENTER_TAPPED;
	install_type POLETOP;
	primary_voltage 7200 V;
	secondary_voltage 120 V;
	power_rating 37.5;
	powerC_rating 37.5;
	resistance 0.00400;
	reactance 0.00267;
	shunt_impedance 365.685+289.739j;
}

object transformer_configuration {
	name transformer_configuration_2903;
	connect_type SINGLE_PHASE_CENTER_TAPPED;
	install_type PADMOUNT;
	primary_voltage 7200 V;
	secondary_voltage 120 V;
	power_rating 30.0;
	powerC_rating 30.0;
	resistance 0.00500;
	reactance 0.00333;
	shunt_impedance 350.040+343.862j;
}

object transformer_configuration {
	name transformer_configuration_3389;
	connect_type WYE_WYE;
	install_type PADMOUNT;
	primary_voltage 12470.000 V;
	secondary_voltage 480 V;
	power_rating 525.0;
	powerA_rating 175.0;
	powerB_rating 175.0;
	powerC_rating 175.0;
	resistance 0.00019;
	reactance 0.00095;
	shunt_impedance 1382.610+1292.452j;
}

object transformer_configuration {
	name transformer_configuration_3390;
	connect_type WYE_WYE;
	install_type PADMOUNT;
	primary_voltage 12470.000 V;
	secondary_voltage 480 V;
	power_rating 30.0;
	powerA_rating 10.0;
	powerB_rating 10.0;
	powerC_rating 10.0;
	resistance 0.00333;
	reactance 0.01667;
	shunt_impedance 350.040+355.519j;
}

object transformer_configuration {
	name transformer_configuration_3391;
	connect_type WYE_WYE;
	install_type PADMOUNT;
	primary_voltage 12470.000 V;
	secondary_voltage 480 V;
	power_rating 45.0;
	powerA_rating 15.0;
	powerB_rating 15.0;
	powerC_rating 15.0;
	resistance 0.00222;
	reactance 0.01111;
	shunt_impedance 381.330+348.908j;
}

object transformer_configuration {
	name transformer_configuration_3392;
	connect_type WYE_WYE;
	install_type POLETOP;
	primary_voltage 12470.000 V;
	secondary_voltage 480 V;
	power_rating 225.0;
	powerA_rating 75.0;
	powerB_rating 75.0;
	powerC_rating 75.0;
	resistance 0.00044;
	reactance 0.00222;
	shunt_impedance 756.810+777.928j;
}

object transformer_configuration {
	name transformer_configuration_3393;
	connect_type WYE_WYE;
	install_type POLETOP;
	primary_voltage 12470.000 V;
	secondary_voltage 480 V;
	power_rating 45.0;
	powerA_rating 15.0;
	powerB_rating 15.0;
	powerC_rating 15.0;
	resistance 0.00222;
	reactance 0.01111;
	shunt_impedance 381.330+404.099j;
}

object transformer_configuration {
	name transformer_configuration_3394;
	connect_type WYE_WYE;
	install_type POLETOP;
	primary_voltage 12470.000 V;
	secondary_voltage 480 V;
	power_rating 25.0;
	powerA_rating 25.0;
	powerB_rating 0.0;
	powerC_rating 0.0;
	resistance 0.00400;
	reactance 0.02000;
	shunt_impedance 339.610+347.921j;
}

object transformer_configuration {
	name transformer_configuration_3395;
	connect_type WYE_WYE;
	install_type PADMOUNT;
	primary_voltage 12470.000 V;
	secondary_voltage 480 V;
	power_rating 300.0;
	powerA_rating 100.0;
	powerB_rating 100.0;
	powerC_rating 100.0;
	resistance 0.00033;
	reactance 0.00167;
	shunt_impedance 913.260+902.452j;
}

object transformer_configuration {
	name transformer_configuration_3396;
	connect_type WYE_WYE;
	install_type PADMOUNT;
	primary_voltage 12470.000 V;
	secondary_voltage 480 V;
	power_rating 25.0;
	powerA_rating 25.0;
	resistance 0.00400;
	reactance 0.02000;
	shunt_impedance 339.610+295.820j;
}

object transformer_configuration {
	name transformer_configuration_3397;
	connect_type WYE_WYE;
	install_type PADMOUNT;
	primary_voltage 12470.000 V;
	secondary_voltage 480 V;
	power_rating 10.0;
	powerA_rating 10.0;
	resistance 0.01;
	reactance 0.05;
	shunt_impedance 308.320+310.095j;
}

object triplex_line_conductor {
	name triplex_4/0 AA;
	resistance 0.48;
	geometric_mean_radius 0.0158;
}

object triplex_line_configuration {
	name triplex_line_configuration_1;
	conductor_1 triplex_4/0 AA;
	conductor_2 triplex_4/0 AA;
	conductor_N triplex_4/0 AA;
	insulation_thickness 0.08;
	diameter 0.522;
}

object underground_line_conductor {
	name underground_line_conductor_2;
	rating.summer.continuous 112.0;
	outer_diameter 1.09;
	conductor_gmr 0.0088 ft;
	conductor_diameter 0.292;
	conductor_resistance 1.38336;
	neutral_gmr 0.0348162687755351 ft;
	neutral_resistance 13.5696;
	neutral_diameter 0.0641;
	neutral_strands 6.0;
	shield_gmr 0.00;
	shield_resistance 0.00;
}

object underground_line_conductor {
	name underground_line_conductor_3;
	rating.summer.continuous 214.0;
	outer_diameter 1.32;
	conductor_gmr 0.0177 ft;
	conductor_diameter 0.528;
	conductor_resistance 0.433488;
	neutral_gmr 0.0485380344339232 ft;
	neutral_resistance 13.5696;
	neutral_diameter 0.0641;
	neutral_strands 11.0;
	shield_gmr 0.00;
	shield_resistance 0.00;
}

object underground_line_conductor {
	name underground_line_conductor_6;
	rating.summer.continuous 142.0;
	outer_diameter 1.27;
	conductor_gmr 0.01142 ft;
	conductor_diameter 0.362;
	conductor_resistance 0.88704;
	neutral_gmr 0.0489686771417213 ft;
	neutral_resistance 13.86528;
	neutral_diameter 0.0641;
	neutral_strands 16.0;
	shield_gmr 0.00;
	shield_resistance 0.00;
}

object underground_line_conductor {
	name underground_line_conductor_8;
	rating.summer.continuous 425.0;
	outer_diameter 1.96;
	conductor_gmr 0.0321 ft;
	conductor_diameter 0.998;
	conductor_resistance 0.122496;
	neutral_gmr 0.0751564095285873 ft;
	neutral_resistance 5.3856;
	neutral_diameter 0.1019;
	neutral_strands 15.0;
	shield_gmr 0.00;
	shield_resistance 0.00;
}

object underground_line_conductor {
	name underground_line_conductor_10;
	rating.summer.continuous 488.0;
	outer_diameter 2.15;
	conductor_gmr 0.0371 ft;
	conductor_diameter 1.152;
	conductor_resistance 0.091872;
	neutral_gmr 0.0842565914341201 ft;
	neutral_resistance 5.3856;
	neutral_diameter 0.1019;
	neutral_strands 20.0;
	shield_gmr 0.00;
	shield_resistance 0.00;
}

object transformer_configuration {
	name trans_config_to_feeder;
	connect_type WYE_WYE;
	install_type PADMOUNT;
	primary_voltage 230000;
	secondary_voltage 12470.000;
	power_rating 4.0 MVA;
	impedance 0.00033+0.0022j;
}

object meter {
	name network_node;
	bustype SWING;
	nominal_voltage 230000;
	object player {
		property voltage_A;
		loop 100;
		file V_A.player;
		};
	object player {
		property voltage_B;
		loop 100;
		file V_B.player;
		};
	object player {
		property voltage_C;
		loop 100;
		file V_C.player;
		};
	phases ABCN;
}

object transformer {
	name substation_transformer;
	from network_node;
	to R2-12-47-3_node_832;
	phases ABCN;
	configuration trans_config_to_feeder;
}

object regulator {
	name R2-12-47-3_reg_1;
	from R2-12-47-3_node_832;
	to R2-12-47-3_meter_12_comm;
	phases ABCN;
	configuration feeder_reg_cfg;
}

object capacitor {
	name R2-12-47-3_cap_1;
	phases AN;
	pt_phase C;
	parent R2-12-47-3_node_3;
	phases_connected A;
	control MANUAL;
	capacitor_A 0.3 MVAr;
	capacitor_B 0.3 MVAr;
	capacitor_C 0.3 MVAr;
	control_level INDIVIDUAL;
	time_delay 30.0;
	dwell_time 30.0;
	cap_nominal_voltage 7200;
	nominal_voltage 7200;
	switchA CLOSED;
	switchB CLOSED;
	switchC CLOSED;
}

object fuse {
	name R2-12-47-3_fuse_1;
	phases ABCN;
	from R2-12-47-3_node_228;
	to R2-12-47-3_node_265;
	current_limit 50000;
	status CLOSED;
}

object fuse {
	name R2-12-47-3_fuse_2;
	phases ABCN;
	from R2-12-47-3_node_232;
	to R2-12-47-3_node_272;
	current_limit 50000;
	status CLOSED;
}

object fuse {
	name R2-12-47-3_fuse_3;
	phases ABCN;
	from R2-12-47-3_node_65;
	to R2-12-47-3_node_628;
	current_limit 50000;
	status CLOSED;
}

object fuse {
	name R2-12-47-3_fuse_4;
	phases ACN;
	from R2-12-47-3_node_39;
	to R2-12-47-3_node_40;
	current_limit 50000;
	status CLOSED;
}

object fuse {
	name R2-12-47-3_fuse_5;
	phases ABCN;
	from R2-12-47-3_node_66;
	to R2-12-47-3_node_535;
	current_limit 50000;
	status CLOSED;
}

object fuse {
	name R2-12-47-3_fuse_6;
	phases ABCN;
	from R2-12-47-3_node_59;
	to R2-12-47-3_node_45;
	current_limit 50000;
	status CLOSED;
}

object fuse {
	name R2-12-47-3_fuse_7;
	phases ABCN;
	from R2-12-47-3_node_61;
	to R2-12-47-3_node_63;
	current_limit 50000;
	status CLOSED;
}

object fuse {
	name R2-12-47-3_fuse_8;
	phases CN;
	from R2-12-47-3_node_82;
	to R2-12-47-3_node_81;
	current_limit 50000;
	status CLOSED;
}

object fuse {
	name R2-12-47-3_fuse_9;
	phases ABCN;
	from R2-12-47-3_node_71;
	to R2-12-47-3_node_72;
	current_limit 50000;
	status CLOSED;
}

object fuse {
	name R2-12-47-3_fuse_10;
	phases CN;
	from R2-12-47-3_node_71;
	to R2-12-47-3_node_74;
	current_limit 50000;
	status CLOSED;
}

object fuse {
	name R2-12-47-3_fuse_11;
	phases CN;
	from R2-12-47-3_node_98;
	to R2-12-47-3_node_99;
	current_limit 50000;
	status CLOSED;
}

object fuse {
	name R2-12-47-3_fuse_12;
	phases ABCN;
	from R2-12-47-3_node_88;
	to R2-12-47-3_node_89;
	current_limit 50000;
	status CLOSED;
}

object fuse {
	name R2-12-47-3_fuse_13;
	phases ABCN;
	from R2-12-47-3_node_90;
	to R2-12-47-3_node_91;
	current_limit 50000;
	status CLOSED;
}

object fuse {
	name R2-12-47-3_fuse_14;
	phases AN;
	from R2-12-47-3_node_148;
	to R2-12-47-3_node_120;
	current_limit 50000;
	status CLOSED;
}

object fuse {
	name R2-12-47-3_fuse_15;
	phases ABCN;
	from R2-12-47-3_node_146;
	to R2-12-47-3_node_114;
	current_limit 50000;
	status CLOSED;
}

object fuse {
	name R2-12-47-3_fuse_16;
	phases ABCN;
	from R2-12-47-3_node_145;
	to R2-12-47-3_node_149;
	current_limit 50000;
	status CLOSED;
}

object fuse {
	name R2-12-47-3_fuse_17;
	phases CN;
	from R2-12-47-3_node_171;
	to R2-12-47-3_node_170;
	current_limit 50000;
	status CLOSED;
}

object fuse {
	name R2-12-47-3_fuse_18;
	phases ABCN;
	from R2-12-47-3_node_749;
	to R2-12-47-3_node_748;
	current_limit 50000;
	status CLOSED;
}

object fuse {
	name R2-12-47-3_fuse_19;
	phases ABCN;
	from R2-12-47-3_node_757;
	to R2-12-47-3_node_776;
	current_limit 50000;
	status CLOSED;
}

object fuse {
	name R2-12-47-3_fuse_20;
	phases BN;
	from R2-12-47-3_node_214;
	to R2-12-47-3_node_209;
	current_limit 50000;
	status CLOSED;
}

object fuse {
	name R2-12-47-3_fuse_21;
	phases ABCN;
	from R2-12-47-3_node_215;
	to R2-12-47-3_node_243;
	current_limit 50000;
	status CLOSED;
}

object fuse {
	name R2-12-47-3_fuse_22;
	phases ABCN;
	from R2-12-47-3_node_216;
	to R2-12-47-3_node_212;
	current_limit 50000;
	status CLOSED;
}

object fuse {
	name R2-12-47-3_fuse_23;
	phases CN;
	from R2-12-47-3_node_70;
	to R2-12-47-3_node_222;
	current_limit 50000;
	status CLOSED;
}

object fuse {
	name R2-12-47-3_fuse_24;
	phases ACN;
	from R2-12-47-3_node_68;
	to R2-12-47-3_node_236;
	current_limit 50000;
	status CLOSED;
}

object fuse {
	name R2-12-47-3_fuse_25;
	phases CN;
	from R2-12-47-3_node_54;
	to R2-12-47-3_node_32;
	current_limit 50000;
	status CLOSED;
}

object fuse {
	name R2-12-47-3_fuse_26;
	phases CN;
	from R2-12-47-3_node_90;
	to R2-12-47-3_node_242;
	current_limit 50000;
	status CLOSED;
}

object fuse {
	name R2-12-47-3_fuse_27;
	phases CN;
	from R2-12-47-3_node_105;
	to R2-12-47-3_node_512;
	current_limit 50000;
	status CLOSED;
}

object fuse {
	name R2-12-47-3_fuse_28;
	phases CN;
	from R2-12-47-3_node_107;
	to R2-12-47-3_node_253;
	current_limit 50000;
	status CLOSED;
}

object fuse {
	name R2-12-47-3_fuse_29;
	phases ABCN;
	from R2-12-47-3_node_7;
	to R2-12-47-3_node_8;
	current_limit 50000;
	status CLOSED;
}

object fuse {
	name R2-12-47-3_fuse_30;
	phases ABCN;
	from R2-12-47-3_node_294;
	to R2-12-47-3_node_297;
	current_limit 50000;
	status CLOSED;
}

object fuse {
	name R2-12-47-3_fuse_31;
	phases ABCN;
	from R2-12-47-3_node_294;
	to R2-12-47-3_node_298;
	current_limit 50000;
	status CLOSED;
}

object fuse {
	name R2-12-47-3_fuse_32;
	phases ABCN;
	from R2-12-47-3_node_467;
	to R2-12-47-3_node_469;
	current_limit 50000;
	status CLOSED;
}

object fuse {
	name R2-12-47-3_fuse_33;
	phases AN;
	from R2-12-47-3_node_467;
	to R2-12-47-3_node_471;
	current_limit 50000;
	status CLOSED;
}

object fuse {
	name R2-12-47-3_fuse_34;
	phases AN;
	from R2-12-47-3_node_473;
	to R2-12-47-3_node_475;
	current_limit 50000;
	status CLOSED;
}

object fuse {
	name R2-12-47-3_fuse_35;
	phases ABCN;
	from R2-12-47-3_node_454;
	to R2-12-47-3_node_517;
	current_limit 50000;
	status CLOSED;
}

object fuse {
	name R2-12-47-3_fuse_36;
	phases ABCN;
	from R2-12-47-3_node_632;
	to R2-12-47-3_node_811;
	current_limit 50000;
	status CLOSED;
}

object fuse {
	name R2-12-47-3_fuse_37;
	phases ABCN;
	from R2-12-47-3_node_632;
	to R2-12-47-3_node_635;
	current_limit 50000;
	status CLOSED;
}

object fuse {
	name R2-12-47-3_fuse_38;
	phases ABCN;
	from R2-12-47-3_node_645;
	to R2-12-47-3_node_807;
	current_limit 50000;
	status CLOSED;
}

object fuse {
	name R2-12-47-3_fuse_39;
	phases ABCN;
	from R2-12-47-3_node_645;
	to R2-12-47-3_node_646;
	current_limit 50000;
	status CLOSED;
}

object fuse {
	name R2-12-47-3_fuse_40;
	phases ABCN;
	from R2-12-47-3_node_650;
	to R2-12-47-3_node_815;
	current_limit 50000;
	status CLOSED;
}

object fuse {
	name R2-12-47-3_fuse_41;
	phases ABCN;
	from R2-12-47-3_node_685;
	to R2-12-47-3_node_684;
	current_limit 50000;
	status CLOSED;
}

object node {
	name R2-12-47-3_load_1;
	parent R2-12-47-3_meter_1;
	phases ABCN;
	nominal_voltage 480.00;
}

object node {
	name R2-12-47-3_load_2;
	parent R2-12-47-3_meter_2;
	phases ABCN;
	nominal_voltage 480.00;
}

object node {
	name R2-12-47-3_load_3;
	parent R2-12-47-3_meter_3;
	phases ABCN;
	nominal_voltage 480.00;
}

object node {
	name R2-12-47-3_load_4;
	parent R2-12-47-3_meter_4;
	phases ABCN;
	nominal_voltage 480.00;
}

object node {
	name R2-12-47-3_load_5;
	parent R2-12-47-3_meter_5;
	phases ABCN;
	nominal_voltage 480.00;
}

object node {
	name R2-12-47-3_load_6;
	parent R2-12-47-3_meter_6;
	phases ABCN;
	nominal_voltage 480.00;
}

object node {
	name R2-12-47-3_load_7;
	parent R2-12-47-3_meter_7;
	phases ABCN;
	nominal_voltage 480.00;
}

object node {
	name R2-12-47-3_load_8;
	parent R2-12-47-3_meter_8;
	phases ABCN;
	nominal_voltage 480.00;
}

object node {
	name R2-12-47-3_load_9;
	parent R2-12-47-3_meter_9;
	phases AN;
	nominal_voltage 480.00;
}

object node {
	name R2-12-47-3_load_10;
	parent R2-12-47-3_meter_10;
	phases AN;
	nominal_voltage 480.00;
}

object node {
	name R2-12-47-3_load_11;
	parent R2-12-47-3_meter_11;
	phases ABCN;
	nominal_voltage 480.00;
}

object meter {
	name R2-12-47-3_meter_1;
	phases ABCN;
	voltage_A 7200+0.0j;
	voltage_B -3600-6235j;
	voltage_C -3600+6235j;
	nominal_voltage 480;
}

object meter {
	name R2-12-47-3_meter_2;
	phases ABCN;
	voltage_A 7200+0.0j;
	voltage_B -3600-6235j;
	voltage_C -3600+6235j;
	nominal_voltage 480;
}

object meter {
	name R2-12-47-3_meter_3;
	phases ABCN;
	voltage_A 7200+0.0j;
	voltage_B -3600-6235j;
	voltage_C -3600+6235j;
	nominal_voltage 480;
}

object meter {
	name R2-12-47-3_meter_4;
	phases ABCN;
	voltage_A 7200+0.0j;
	voltage_B -3600-6235j;
	voltage_C -3600+6235j;
	nominal_voltage 480;
}

object meter {
	name R2-12-47-3_meter_5;
	phases ABCN;
	voltage_A 7200+0.0j;
	voltage_B -3600-6235j;
	voltage_C -3600+6235j;
	nominal_voltage 480;
}

object meter {
	name R2-12-47-3_meter_6;
	phases ABCN;
	voltage_A 7200+0.0j;
	voltage_B -3600-6235j;
	voltage_C -3600+6235j;
	nominal_voltage 480;
}

object meter {
	name R2-12-47-3_meter_7;
	phases ABCN;
	voltage_A 7200+0.0j;
	voltage_B -3600-6235j;
	voltage_C -3600+6235j;
	nominal_voltage 480;
}

object meter {
	name R2-12-47-3_meter_8;
	phases ABCN;
	voltage_A 7200+0.0j;
	voltage_B -3600-6235j;
	voltage_C -3600+6235j;
	nominal_voltage 480;
}

object meter {
	name R2-12-47-3_meter_9;
	phases AN;
	voltage_A 7200+0.0j;
	nominal_voltage 480;
}

object meter {
	name R2-12-47-3_meter_10;
	phases AN;
	voltage_A 7200+0.0j;
	nominal_voltage 480;
}

object meter {
	name R2-12-47-3_meter_11;
	phases ABCN;
	voltage_A 7200+0.0j;
	voltage_B -3600-6235j;
	voltage_C -3600+6235j;
	nominal_voltage 480;
}

object meter {
	name R2-12-47-3_meter_12;
	phases ABCN;
	nominal_voltage 480;
	voltage_A 7200+0.0j;
	voltage_B -3600-6235j;
	voltage_C -3600+6235j;
}

object node {
	name R2-12-47-3_node_1;
	phases AN;
	voltage_A 7200+0.0j;
	nominal_voltage 7200;
}

object node {
	name R2-12-47-3_node_2;
	phases AN;
	voltage_A 7200+0.0j;
	nominal_voltage 7200;
}

object node {
	name R2-12-47-3_node_3;
	phases ABCN;
	voltage_A 7200+0.0j;
	voltage_B -3600-6235j;
	voltage_C -3600+6235j;
	nominal_voltage 7200;
}

object node {
	name R2-12-47-3_node_4;
	phases ABCN;
	voltage_A 7200+0.0j;
	voltage_B -3600-6235j;
	voltage_C -3600+6235j;
	nominal_voltage 7200;
}

object node {
	name R2-12-47-3_node_5;
	phases ABCN;
	voltage_A 7200+0.0j;
	voltage_B -3600-6235j;
	voltage_C -3600+6235j;
	nominal_voltage 7200;
}

object node {
	name R2-12-47-3_node_6;
	phases ABCN;
	voltage_A 7200+0.0j;
	voltage_B -3600-6235j;
	voltage_C -3600+6235j;
	nominal_voltage 7200;
}

object node {
	name R2-12-47-3_node_7;
	phases ABCN;
	voltage_A 7200+0.0j;
	voltage_B -3600-6235j;
	voltage_C -3600+6235j;
	nominal_voltage 7200;
}

object node {
	name R2-12-47-3_node_8;
	phases ABCN;
	voltage_A 7200+0.0j;
	voltage_B -3600-6235j;
	voltage_C -3600+6235j;
	nominal_voltage 7200;
}

object node {
	name R2-12-47-3_node_9;
	phases ABCN;
	voltage_A 7200+0.0j;
	voltage_B -3600-6235j;
	voltage_C -3600+6235j;
	nominal_voltage 7200;
}

object node {
	name R2-12-47-3_node_10;
	phases ABCN;
	voltage_A 7200+0.0j;
	voltage_B -3600-6235j;
	voltage_C -3600+6235j;
	nominal_voltage 7200;
}

object node {
	name R2-12-47-3_node_11;
	phases ABCN;
	voltage_A 7200+0.0j;
	voltage_B -3600-6235j;
	voltage_C -3600+6235j;
	nominal_voltage 7200;
}

object node {
	name R2-12-47-3_node_12;
	phases ABCN;
	voltage_A 7200+0.0j;
	voltage_B -3600-6235j;
	voltage_C -3600+6235j;
	nominal_voltage 7200;
}

object node {
	name R2-12-47-3_node_13;
	phases ABCN;
	voltage_A 7200+0.0j;
	voltage_B -3600-6235j;
	voltage_C -3600+6235j;
	nominal_voltage 7200;
}

object node {
	name R2-12-47-3_node_14;
	phases ABCN;
	voltage_A 7200+0.0j;
	voltage_B -3600-6235j;
	voltage_C -3600+6235j;
	nominal_voltage 7200;
}

object node {
	name R2-12-47-3_node_15;
	phases BN;
	voltage_B -3600-6235j;
	nominal_voltage 7200;
}

object node {
	name R2-12-47-3_node_16;
	phases ABCN;
	voltage_A 7200+0.0j;
	voltage_B -3600-6235j;
	voltage_C -3600+6235j;
	nominal_voltage 7200;
}

object node {
	name R2-12-47-3_node_17;
	phases ABCN;
	voltage_A 7200+0.0j;
	voltage_B -3600-6235j;
	voltage_C -3600+6235j;
	nominal_voltage 7200;
}

object node {
	name R2-12-47-3_node_18;
	phases ABCN;
	voltage_A 7200+0.0j;
	voltage_B -3600-6235j;
	voltage_C -3600+6235j;
	nominal_voltage 7200;
}

object node {
	name R2-12-47-3_node_19;
	phases ABCN;
	voltage_A 7200+0.0j;
	voltage_B -3600-6235j;
	voltage_C -3600+6235j;
	nominal_voltage 7200;
}

object node {
	name R2-12-47-3_node_20;
	phases ABCN;
	voltage_A 7200+0.0j;
	voltage_B -3600-6235j;
	voltage_C -3600+6235j;
	nominal_voltage 7200;
}

object node {
	name R2-12-47-3_node_21;
	phases ABCN;
	voltage_A 7200+0.0j;
	voltage_B -3600-6235j;
	voltage_C -3600+6235j;
	nominal_voltage 7200;
}

object node {
	name R2-12-47-3_node_22;
	phases AN;
	voltage_A 7200+0.0j;
	nominal_voltage 7200;
}

object node {
	name R2-12-47-3_node_23;
	phases CN;
	voltage_C -3600+6235j;
	nominal_voltage 7200;
}

object node {
	name R2-12-47-3_node_24;
	phases BN;
	voltage_B -3600-6235j;
	nominal_voltage 7200;
}

object node {
	name R2-12-47-3_node_25;
	phases CN;
	voltage_C -3600+6235j;
	nominal_voltage 7200;
}

object node {
	name R2-12-47-3_node_26;
	phases BN;
	voltage_B -3600-6235j;
	nominal_voltage 7200;
}

object node {
	name R2-12-47-3_node_27;
	phases ABCN;
	voltage_A 7200+0.0j;
	voltage_B -3600-6235j;
	voltage_C -3600+6235j;
	nominal_voltage 7200;
}

object node {
	name R2-12-47-3_node_28;
	phases ABCN;
	voltage_A 7200+0.0j;
	voltage_B -3600-6235j;
	voltage_C -3600+6235j;
	nominal_voltage 7200;
}

object node {
	name R2-12-47-3_node_29;
	phases CN;
	voltage_C -3600+6235j;
	nominal_voltage 7200;
}

object node {
	name R2-12-47-3_node_30;
	phases CN;
	voltage_C -3600+6235j;
	nominal_voltage 7200;
}

object node {
	name R2-12-47-3_node_31;
	phases AN;
	voltage_A 7200+0.0j;
	nominal_voltage 7200;
}

object node {
	name R2-12-47-3_node_32;
	phases CN;
	voltage_C -3600+6235j;
	nominal_voltage 7200;
}

object node {
	name R2-12-47-3_node_33;
	phases AN;
	voltage_A 7200+0.0j;
	nominal_voltage 7200;
}

object node {
	name R2-12-47-3_node_34;
	phases AN;
	voltage_A 7200+0.0j;
	nominal_voltage 7200;
}

object node {
	name R2-12-47-3_node_35;
	phases AN;
	voltage_A 7200+0.0j;
	nominal_voltage 7200;
}

object node {
	name R2-12-47-3_node_36;
	phases AN;
	voltage_A 7200+0.0j;
	nominal_voltage 7200;
}

object node {
	name R2-12-47-3_node_37;
	phases CN;
	voltage_C -3600+6235j;
	nominal_voltage 7200;
}

object node {
	name R2-12-47-3_node_38;
	phases CN;
	voltage_C -3600+6235j;
	nominal_voltage 7200;
}

object node {
	name R2-12-47-3_node_39;
	phases ACN;
	voltage_A 7200+0.0j;
	voltage_C -3600+6235j;
	nominal_voltage 7200;
}

object node {
	name R2-12-47-3_node_40;
	phases ACN;
	voltage_A 7200+0.0j;
	voltage_C -3600+6235j;
	nominal_voltage 7200;
}

object node {
	name R2-12-47-3_node_41;
	phases ACN;
	voltage_A 7200+0.0j;
	voltage_C -3600+6235j;
	nominal_voltage 7200;
}

object node {
	name R2-12-47-3_node_42;
	phases ACN;
	voltage_A 7200+0.0j;
	voltage_C -3600+6235j;
	nominal_voltage 7200;
}

object node {
	name R2-12-47-3_node_43;
	phases ACN;
	voltage_A 7200+0.0j;
	voltage_C -3600+6235j;
	nominal_voltage 7200;
}

object node {
	name R2-12-47-3_node_44;
	phases ABCN;
	voltage_A 7200+0.0j;
	voltage_B -3600-6235j;
	voltage_C -3600+6235j;
	nominal_voltage 7200;
}

object node {
	name R2-12-47-3_node_45;
	phases ABCN;
	voltage_A 7200+0.0j;
	voltage_B -3600-6235j;
	voltage_C -3600+6235j;
	nominal_voltage 7200;
}

object node {
	name R2-12-47-3_node_46;
	phases ABCN;
	voltage_A 7200+0.0j;
	voltage_B -3600-6235j;
	voltage_C -3600+6235j;
	nominal_voltage 7200;
}

object node {
	name R2-12-47-3_node_47;
	phases ABCN;
	voltage_A 7200+0.0j;
	voltage_B -3600-6235j;
	voltage_C -3600+6235j;
	nominal_voltage 7200;
}

object node {
	name R2-12-47-3_node_48;
	phases ABCN;
	voltage_A 7200+0.0j;
	voltage_B -3600-6235j;
	voltage_C -3600+6235j;
	nominal_voltage 7200;
}

object node {
	name R2-12-47-3_node_49;
	phases ABCN;
	voltage_A 7200+0.0j;
	voltage_B -3600-6235j;
	voltage_C -3600+6235j;
	nominal_voltage 7200;
}

object node {
	name R2-12-47-3_node_50;
	phases ABCN;
	voltage_A 7200+0.0j;
	voltage_B -3600-6235j;
	voltage_C -3600+6235j;
	nominal_voltage 7200;
}

object node {
	name R2-12-47-3_node_51;
	phases AN;
	voltage_A 7200+0.0j;
	nominal_voltage 7200;
}

object node {
	name R2-12-47-3_node_52;
	phases ABCN;
	voltage_A 7200+0.0j;
	voltage_B -3600-6235j;
	voltage_C -3600+6235j;
	nominal_voltage 7200;
}

object node {
	name R2-12-47-3_node_53;
	phases ABCN;
	voltage_A 7200+0.0j;
	voltage_B -3600-6235j;
	voltage_C -3600+6235j;
	nominal_voltage 7200;
}

object node {
	name R2-12-47-3_node_54;
	phases ABCN;
	voltage_A 7200+0.0j;
	voltage_B -3600-6235j;
	voltage_C -3600+6235j;
	nominal_voltage 7200;
}

object node {
	name R2-12-47-3_node_55;
	phases ABCN;
	voltage_A 7200+0.0j;
	voltage_B -3600-6235j;
	voltage_C -3600+6235j;
	nominal_voltage 7200;
}

object node {
	name R2-12-47-3_node_56;
	phases ABCN;
	voltage_A 7200+0.0j;
	voltage_B -3600-6235j;
	voltage_C -3600+6235j;
	nominal_voltage 7200;
}

object node {
	name R2-12-47-3_node_57;
	phases ABCN;
	voltage_A 7200+0.0j;
	voltage_B -3600-6235j;
	voltage_C -3600+6235j;
	nominal_voltage 7200;
}

object node {
	name R2-12-47-3_node_58;
	phases ABCN;
	voltage_A 7200+0.0j;
	voltage_B -3600-6235j;
	voltage_C -3600+6235j;
	nominal_voltage 7200;
}

object node {
	name R2-12-47-3_node_59;
	phases ABCN;
	voltage_A 7200+0.0j;
	voltage_B -3600-6235j;
	voltage_C -3600+6235j;
	nominal_voltage 7200;
}

object node {
	name R2-12-47-3_node_60;
	phases ABCN;
	voltage_A 7200+0.0j;
	voltage_B -3600-6235j;
	voltage_C -3600+6235j;
	nominal_voltage 7200;
}

object node {
	name R2-12-47-3_node_61;
	phases ABCN;
	voltage_A 7200+0.0j;
	voltage_B -3600-6235j;
	voltage_C -3600+6235j;
	nominal_voltage 7200;
}

object node {
	name R2-12-47-3_node_62;
	phases CN;
	voltage_C -3600+6235j;
	nominal_voltage 7200;
}

object node {
	name R2-12-47-3_node_63;
	phases ABCN;
	voltage_A 7200+0.0j;
	voltage_B -3600-6235j;
	voltage_C -3600+6235j;
	nominal_voltage 7200;
}

object node {
	name R2-12-47-3_node_64;
	phases CN;
	voltage_C -3600+6235j;
	nominal_voltage 7200;
}

object node {
	name R2-12-47-3_node_65;
	phases ABCN;
	voltage_A 7200+0.0j;
	voltage_B -3600-6235j;
	voltage_C -3600+6235j;
	nominal_voltage 7200;
}

object node {
	name R2-12-47-3_node_66;
	phases ABCN;
	voltage_A 7200+0.0j;
	voltage_B -3600-6235j;
	voltage_C -3600+6235j;
	nominal_voltage 7200;
}

object node {
	name R2-12-47-3_node_67;
	phases CN;
	voltage_C -3600+6235j;
	nominal_voltage 7200;
}

object node {
	name R2-12-47-3_node_68;
	phases ABCN;
	voltage_A 7200+0.0j;
	voltage_B -3600-6235j;
	voltage_C -3600+6235j;
	nominal_voltage 7200;
}

object node {
	name R2-12-47-3_node_69;
	phases ABCN;
	voltage_A 7200+0.0j;
	voltage_B -3600-6235j;
	voltage_C -3600+6235j;
	nominal_voltage 7200;
}

object node {
	name R2-12-47-3_node_70;
	phases ABCN;
	voltage_A 7200+0.0j;
	voltage_B -3600-6235j;
	voltage_C -3600+6235j;
	nominal_voltage 7200;
}

object node {
	name R2-12-47-3_node_71;
	phases ABCN;
	voltage_A 7200+0.0j;
	voltage_B -3600-6235j;
	voltage_C -3600+6235j;
	nominal_voltage 7200;
}

object node {
	name R2-12-47-3_node_72;
	phases ABCN;
	voltage_A 7200+0.0j;
	voltage_B -3600-6235j;
	voltage_C -3600+6235j;
	nominal_voltage 7200;
}

object node {
	name R2-12-47-3_node_73;
	phases ABCN;
	voltage_A 7200+0.0j;
	voltage_B -3600-6235j;
	voltage_C -3600+6235j;
	nominal_voltage 7200;
}

object node {
	name R2-12-47-3_node_74;
	phases CN;
	voltage_C -3600+6235j;
	nominal_voltage 7200;
}

object node {
	name R2-12-47-3_node_75;
	phases CN;
	voltage_C -3600+6235j;
	nominal_voltage 7200;
}

object node {
	name R2-12-47-3_node_76;
	phases ABCN;
	voltage_A 7200+0.0j;
	voltage_B -3600-6235j;
	voltage_C -3600+6235j;
	nominal_voltage 7200;
}

object node {
	name R2-12-47-3_node_77;
	phases ABCN;
	voltage_A 7200+0.0j;
	voltage_B -3600-6235j;
	voltage_C -3600+6235j;
	nominal_voltage 7200;
}

object node {
	name R2-12-47-3_node_78;
	phases ABCN;
	voltage_A 7200+0.0j;
	voltage_B -3600-6235j;
	voltage_C -3600+6235j;
	nominal_voltage 7200;
}

object node {
	name R2-12-47-3_node_79;
	phases CN;
	voltage_C -3600+6235j;
	nominal_voltage 7200;
}

object node {
	name R2-12-47-3_node_80;
	phases CN;
	voltage_C -3600+6235j;
	nominal_voltage 7200;
}

object node {
	name R2-12-47-3_node_81;
	phases CN;
	voltage_C -3600+6235j;
	nominal_voltage 7200;
}

object node {
	name R2-12-47-3_node_82;
	phases ABCN;
	voltage_A 7200+0.0j;
	voltage_B -3600-6235j;
	voltage_C -3600+6235j;
	nominal_voltage 7200;
}

object node {
	name R2-12-47-3_node_83;
	phases ABCN;
	voltage_A 7200+0.0j;
	voltage_B -3600-6235j;
	voltage_C -3600+6235j;
	nominal_voltage 7200;
}

object node {
	name R2-12-47-3_node_84;
	phases ABCN;
	voltage_A 7200+0.0j;
	voltage_B -3600-6235j;
	voltage_C -3600+6235j;
	nominal_voltage 7200;
}

object node {
	name R2-12-47-3_node_85;
	phases ABCN;
	voltage_A 7200+0.0j;
	voltage_B -3600-6235j;
	voltage_C -3600+6235j;
	nominal_voltage 7200;
}

object node {
	name R2-12-47-3_node_86;
	phases ACN;
	voltage_A 7200+0.0j;
	voltage_C -3600+6235j;
	nominal_voltage 7200;
}

object node {
	name R2-12-47-3_node_87;
	phases ABCN;
	voltage_A 7200+0.0j;
	voltage_B -3600-6235j;
	voltage_C -3600+6235j;
	nominal_voltage 7200;
}

object node {
	name R2-12-47-3_node_88;
	phases ABCN;
	voltage_A 7200+0.0j;
	voltage_B -3600-6235j;
	voltage_C -3600+6235j;
	nominal_voltage 7200;
}

object node {
	name R2-12-47-3_node_89;
	phases ABCN;
	voltage_A 7200+0.0j;
	voltage_B -3600-6235j;
	voltage_C -3600+6235j;
	nominal_voltage 7200;
}

object node {
	name R2-12-47-3_node_90;
	phases ABCN;
	voltage_A 7200+0.0j;
	voltage_B -3600-6235j;
	voltage_C -3600+6235j;
	nominal_voltage 7200;
}

object node {
	name R2-12-47-3_node_91;
	phases ABCN;
	voltage_A 7200+0.0j;
	voltage_B -3600-6235j;
	voltage_C -3600+6235j;
	nominal_voltage 7200;
}

object node {
	name R2-12-47-3_node_92;
	phases ABCN;
	voltage_A 7200+0.0j;
	voltage_B -3600-6235j;
	voltage_C -3600+6235j;
	nominal_voltage 7200;
}

object node {
	name R2-12-47-3_node_93;
	phases ABCN;
	voltage_A 7200+0.0j;
	voltage_B -3600-6235j;
	voltage_C -3600+6235j;
	nominal_voltage 7200;
}

object node {
	name R2-12-47-3_node_94;
	phases ABCN;
	voltage_A 7200+0.0j;
	voltage_B -3600-6235j;
	voltage_C -3600+6235j;
	nominal_voltage 7200;
}

object node {
	name R2-12-47-3_node_95;
	phases CN;
	voltage_C -3600+6235j;
	nominal_voltage 7200;
}

object node {
	name R2-12-47-3_node_96;
	phases CN;
	voltage_C -3600+6235j;
	nominal_voltage 7200;
}

object node {
	name R2-12-47-3_node_97;
	phases CN;
	voltage_C -3600+6235j;
	nominal_voltage 7200;
}

object node {
	name R2-12-47-3_node_98;
	phases CN;
	voltage_C -3600+6235j;
	nominal_voltage 7200;
}

object node {
	name R2-12-47-3_node_99;
	phases CN;
	voltage_C -3600+6235j;
	nominal_voltage 7200;
}

object node {
	name R2-12-47-3_node_100;
	phases CN;
	voltage_C -3600+6235j;
	nominal_voltage 7200;
}

object node {
	name R2-12-47-3_node_101;
	phases CN;
	voltage_C -3600+6235j;
	nominal_voltage 7200;
}

object node {
	name R2-12-47-3_node_102;
	phases CN;
	voltage_C -3600+6235j;
	nominal_voltage 7200;
}

object node {
	name R2-12-47-3_node_103;
	phases ABCN;
	voltage_A 7200+0.0j;
	voltage_B -3600-6235j;
	voltage_C -3600+6235j;
	nominal_voltage 7200;
}

object node {
	name R2-12-47-3_node_104;
	phases ABCN;
	voltage_A 7200+0.0j;
	voltage_B -3600-6235j;
	voltage_C -3600+6235j;
	nominal_voltage 7200;
}

object node {
	name R2-12-47-3_node_105;
	phases ABCN;
	voltage_A 7200+0.0j;
	voltage_B -3600-6235j;
	voltage_C -3600+6235j;
	nominal_voltage 7200;
}

object node {
	name R2-12-47-3_node_106;
	phases ABCN;
	voltage_A 7200+0.0j;
	voltage_B -3600-6235j;
	voltage_C -3600+6235j;
	nominal_voltage 7200;
}

object node {
	name R2-12-47-3_node_107;
	phases ABCN;
	voltage_A 7200+0.0j;
	voltage_B -3600-6235j;
	voltage_C -3600+6235j;
	nominal_voltage 7200;
}

object node {
	name R2-12-47-3_node_108;
	phases ABCN;
	voltage_A 7200+0.0j;
	voltage_B -3600-6235j;
	voltage_C -3600+6235j;
	nominal_voltage 7200;
}

object node {
	name R2-12-47-3_node_109;
	phases ABCN;
	voltage_A 7200+0.0j;
	voltage_B -3600-6235j;
	voltage_C -3600+6235j;
	nominal_voltage 7200;
}

object node {
	name R2-12-47-3_node_110;
	phases ABCN;
	voltage_A 7200+0.0j;
	voltage_B -3600-6235j;
	voltage_C -3600+6235j;
	nominal_voltage 7200;
}

object node {
	name R2-12-47-3_node_111;
	phases ABCN;
	voltage_A 7200+0.0j;
	voltage_B -3600-6235j;
	voltage_C -3600+6235j;
	nominal_voltage 7200;
}

object node {
	name R2-12-47-3_node_112;
	phases ABCN;
	voltage_A 7200+0.0j;
	voltage_B -3600-6235j;
	voltage_C -3600+6235j;
	nominal_voltage 7200;
}

object node {
	name R2-12-47-3_node_113;
	phases AN;
	voltage_A 7200+0.0j;
	nominal_voltage 7200;
}

object node {
	name R2-12-47-3_node_114;
	phases ABCN;
	voltage_A 7200+0.0j;
	voltage_B -3600-6235j;
	voltage_C -3600+6235j;
	nominal_voltage 7200;
}

object node {
	name R2-12-47-3_node_115;
	phases ABCN;
	voltage_A 7200+0.0j;
	voltage_B -3600-6235j;
	voltage_C -3600+6235j;
	nominal_voltage 7200;
}

object node {
	name R2-12-47-3_node_116;
	phases ACN;
	voltage_A 7200+0.0j;
	voltage_C -3600+6235j;
	nominal_voltage 7200;
}

object node {
	name R2-12-47-3_node_117;
	phases ACN;
	voltage_A 7200+0.0j;
	voltage_C -3600+6235j;
	nominal_voltage 7200;
}

object node {
	name R2-12-47-3_node_118;
	phases ACN;
	voltage_A 7200+0.0j;
	voltage_C -3600+6235j;
	nominal_voltage 7200;
}

object node {
	name R2-12-47-3_node_119;
	phases AN;
	voltage_A 7200+0.0j;
	nominal_voltage 7200;
}

object node {
	name R2-12-47-3_node_120;
	phases AN;
	voltage_A 7200+0.0j;
	nominal_voltage 7200;
}

object node {
	name R2-12-47-3_node_121;
	phases AN;
	voltage_A 7200+0.0j;
	nominal_voltage 7200;
}

object node {
	name R2-12-47-3_node_122;
	phases ACN;
	voltage_A 7200+0.0j;
	voltage_C -3600+6235j;
	nominal_voltage 7200;
}

object node {
	name R2-12-47-3_node_123;
	phases AN;
	voltage_A 7200+0.0j;
	nominal_voltage 7200;
}

object node {
	name R2-12-47-3_node_124;
	phases AN;
	voltage_A 7200+0.0j;
	nominal_voltage 7200;
}

object node {
	name R2-12-47-3_node_125;
	phases CN;
	voltage_C -3600+6235j;
	nominal_voltage 7200;
}

object node {
	name R2-12-47-3_node_126;
	phases CN;
	voltage_C -3600+6235j;
	nominal_voltage 7200;
}

object node {
	name R2-12-47-3_node_127;
	phases AN;
	voltage_A 7200+0.0j;
	nominal_voltage 7200;
}

object node {
	name R2-12-47-3_node_128;
	phases CN;
	voltage_C -3600+6235j;
	nominal_voltage 7200;
}

object node {
	name R2-12-47-3_node_129;
	phases AN;
	voltage_A 7200+0.0j;
	nominal_voltage 7200;
}

object node {
	name R2-12-47-3_node_130;
	phases AN;
	voltage_A 7200+0.0j;
	nominal_voltage 7200;
}

object node {
	name R2-12-47-3_node_131;
	phases AN;
	voltage_A 7200+0.0j;
	nominal_voltage 7200;
}

object node {
	name R2-12-47-3_node_132;
	phases AN;
	voltage_A 7200+0.0j;
	nominal_voltage 7200;
}

object node {
	name R2-12-47-3_node_133;
	phases CN;
	voltage_C -3600+6235j;
	nominal_voltage 7200;
}

object node {
	name R2-12-47-3_node_134;
	phases AN;
	voltage_A 7200+0.0j;
	nominal_voltage 7200;
}

object node {
	name R2-12-47-3_node_135;
	phases AN;
	voltage_A 7200+0.0j;
	nominal_voltage 7200;
}

object node {
	name R2-12-47-3_node_136;
	phases AN;
	voltage_A 7200+0.0j;
	nominal_voltage 7200;
}

object node {
	name R2-12-47-3_node_137;
	phases AN;
	voltage_A 7200+0.0j;
	nominal_voltage 7200;
}

object node {
	name R2-12-47-3_node_138;
	phases AN;
	voltage_A 7200+0.0j;
	nominal_voltage 7200;
}

object node {
	name R2-12-47-3_node_139;
	phases AN;
	voltage_A 7200+0.0j;
	nominal_voltage 7200;
}

object node {
	name R2-12-47-3_node_140;
	phases AN;
	voltage_A 7200+0.0j;
	nominal_voltage 7200;
}

object node {
	name R2-12-47-3_node_141;
	phases AN;
	voltage_A 7200+0.0j;
	nominal_voltage 7200;
}

object node {
	name R2-12-47-3_node_142;
	phases ABCN;
	voltage_A 7200+0.0j;
	voltage_B -3600-6235j;
	voltage_C -3600+6235j;
	nominal_voltage 7200;
}

object node {
	name R2-12-47-3_node_143;
	phases ABCN;
	voltage_A 7200+0.0j;
	voltage_B -3600-6235j;
	voltage_C -3600+6235j;
	nominal_voltage 7200;
}

object node {
	name R2-12-47-3_node_144;
	phases BCN;
	voltage_B -3600-6235j;
	voltage_C -3600+6235j;
	nominal_voltage 7200;
}

object node {
	name R2-12-47-3_node_145;
	phases ABCN;
	voltage_A 7200+0.0j;
	voltage_B -3600-6235j;
	voltage_C -3600+6235j;
	nominal_voltage 7200;
}

object node {
	name R2-12-47-3_node_146;
	phases ABCN;
	voltage_A 7200+0.0j;
	voltage_B -3600-6235j;
	voltage_C -3600+6235j;
	nominal_voltage 7200;
}

object node {
	name R2-12-47-3_node_147;
	phases BCN;
	voltage_B -3600-6235j;
	voltage_C -3600+6235j;
	nominal_voltage 7200;
}

object node {
	name R2-12-47-3_node_148;
	phases ACN;
	voltage_A 7200+0.0j;
	voltage_C -3600+6235j;
	nominal_voltage 7200;
}

object node {
	name R2-12-47-3_node_149;
	phases ABCN;
	voltage_A 7200+0.0j;
	voltage_B -3600-6235j;
	voltage_C -3600+6235j;
	nominal_voltage 7200;
}

object node {
	name R2-12-47-3_node_150;
	phases AN;
	voltage_A 7200+0.0j;
	nominal_voltage 7200;
}

object node {
	name R2-12-47-3_node_151;
	phases AN;
	voltage_A 7200+0.0j;
	nominal_voltage 7200;
}

object node {
	name R2-12-47-3_node_152;
	phases CN;
	voltage_C -3600+6235j;
	nominal_voltage 7200;
}

object node {
	name R2-12-47-3_node_153;
	phases ABCN;
	voltage_A 7200+0.0j;
	voltage_B -3600-6235j;
	voltage_C -3600+6235j;
	nominal_voltage 7200;
}

object node {
	name R2-12-47-3_node_154;
	phases ABCN;
...